dynamic-help : DynamicHelpGrailsPlugin

A Grails plugin adding dynamic help tips via a mini-cms.
Based upon:

http://grails.org/plugin/dynamic-help

Updated for Grails 1.3.7, JQuery 1.7, JQuery-UI 1.8.15,
and unnecessary dependencies, plugins, and files removed.


INSTALL

download the latest grails-dynamic-help-VERSION.zip from this repo

in your app, run:

    grails install-plugin grails-dynamic-help-VERSION.zip


John Allison
jja@sinequanon.net
